tests/data/power_flow/pandapower/components/asymmetric/transformer/input.json
{
  "version": "1.0",
  "type": "input",
  "is_batch": false,
  "attributes": {},
  "data": {
    "node": [
      {
        "id": 1,
        "u_rated": 10500.0
      },
      {
        "id": 2,
        "u_rated": 400.0
      }
    ],
    "transformer": [
      {
        "id": 3,
        "from_node": 1,
        "to_node": 2,
        "from_status": 1,
        "to_status": 1,
        "u1": 10500.0,
        "u2": 400.0,
        "sn": 1000000.0,
        "uk": 0.1,
        "pk": 10000.0,
        "i0": 0.01,
        "p0": 1000.0,
        "winding_from": 2,
        "winding_to": 1,
        "clock": 11,
        "tap_side": 0,
        "tap_pos": 0,
        "tap_min": -5,
        "tap_max": 5,
        "tap_nom": 0,
        "tap_size": 105.0
      }
    ],
    "sym_load": [
      {
        "id": 6,
        "node": 2,
        "status": 1,
        "type": 0,
        "p_specified": 10000.0,
        "q_specified": 2000.0
      }
    ],
    "source": [
      {
        "id": 7,
        "node": 1,
        "status": 1,
        "u_ref": 1.0,
        "sk": 1000000000000.0,
        "rx_ratio": 0.1,
        "z01_ratio": 1.0
      }
    ]
  }
}
