tests/data/power_flow/pandapower/components/asymmetric/transformer/asym_output.json
{
  "node": [
    {
      "id": 1,
      "u_pu": [
        1.0,
        0.9999999999999999,
        0.9999999999999999
      ],
      "u": [
        6062.177826491071,
        6062.17782649107,
        6062.17782649107
      ],
      "u_angle": [
        3.467974464012493e-32,
        -2.0943951023931953,
        2.0943951023931953
      ]
    },
    {
      "id": 2,
      "u_pu": [
        0.9996954115579127,
        0.9996954115579126,
        0.9996954115579126
      ],
      "u": [
        230.86976598823787,
        230.86976598823784,
        230.86976598823784
      ],
      "u_angle": [
        0.5225737468250324,
        -1.5718213555681628,
        2.6169688492182277
      ]
    }
  ],
  "sym_load": [
    {
      "id": 6,
      "p": [
        3333.3333333333335,
        3333.3333333333335,
        3333.3333333333335
      ],
      "q": [
        666.6666666666666,
        666.6666666666666,
        666.6666666666666
      ]
    }
  ],
  "transformer": [
    {
      "id": 3,
      "p_from": [
        3666.945118360908,
        3666.945118360909,
        3666.945118360909
      ],
      "q_from": [
        670.4648199478131,
        670.4648199478125,
        670.4648199478144
      ],
      "i_from": [
        0.6149168314066311,
        0.6149168314066313,
        0.6149168314066313
      ],
      "p_to": [
        -3333.333181594865,
        -3333.333181594867,
        -3333.333181594866
      ],
      "q_to": [
        -666.6651711685671,
        -666.6651711685669,
        -666.6651711685687
      ],
      "i_to": [
        14.72408431550783,
        14.724084315507833,
        14.724084315507833
      ]
    }
  ]
}