tests/data/power_flow/pandapower/components/asymmetric/transformer/asym_output_batch.json
{
  "version": "1.0",
  "type": "asym_output",
  "is_batch": true,
  "attributes": {},
  "data": [
    {
      "node": [
        {
          "id": 1,
          "u_pu": [
            1.0,
            0.9999999999999999,
            0.9999999999999999
          ],
          "u": [
            6062.177826491071,
            6062.17782649107,
            6062.17782649107
          ],
          "u_angle": [
            2.7127831835357914e-32,
            -2.0943951023931953,
            2.0943951023931953
          ]
        },
        {
          "id": 2,
          "u_pu": [
            1.051820922542932,
            1.051820922542932,
            1.051820922542932
          ],
          "u": [
            242.90763710777694,
            242.90763710777694,
            242.90763710777694
          ],
          "u_angle": [
            0.5227179509971609,
            -1.5716771513960344,
            2.6171130533903564
          ]
        }
      ],
      "sym_load": [
        {
          "id": 6,
          "p": [
            3333.3333333333335,
            3333.3333333333335,
            3333.3333333333335
          ],
          "q": [
            666.6666666666666,
            666.6666666666666,
            666.6666666666666
          ]
        }
      ],
      "transformer": [
        {
          "id": 3,
          "p_from": [
            3702.8064378997187,
            3702.8064378997187,
            3702.8064378997187
          ],
          "q_from": [
            4342.877640593378,
            4342.877640593376,
            4342.877640593378
          ],
          "p_to": [
            -3333.333333333375,
            -3333.333333333376,
            -3333.333333333376
          ],
          "q_to": [
            -666.666666666502,
            -666.6666666665012,
            -666.6666666665025
          ]
        }
      ]
    },
    {
      "node": [
        {
          "id": 1,
          "u_pu": [
            1.0,
            0.9999999999999999,
            0.9999999999999999
          ],
          "u": [
            6062.177826491071,
            6062.17782649107,
            6062.17782649107
          ],
          "u_angle": [
            2.1172732919162094e-32,
            -2.0943951023931953,
            2.0943951023931953
          ]
        },
        {
          "id": 2,
          "u_pu": [
            1.0408584837698935,
            1.0408584837698935,
            1.0408584837698935
          ],
          "u": [
            240.37597031714154,
            240.37597031714154,
            240.37597031714154
          ],
          "u_angle": [
            0.5226993045583385,
            -1.5716957978348567,
            2.6170944069515336
          ]
        }
      ],
      "sym_load": [
        {
          "id": 6,
          "p": [
            3333.3333333333335,
            3333.3333333333335,
            3333.3333333333335
          ],
          "q": [
            666.6666666666666,
            666.6666666666666,
            666.6666666666666
          ]
        }
      ],
      "transformer": [
        {
          "id": 3,
          "p_from": [
            3695.1622979921594,
            3695.1622979921603,
            3695.1622979921594
          ],
          "q_from": [
            4266.81940883844,
            4266.819408838439,
            4266.81940883844
          ],
          "p_to": [
            -3333.3333333326423,
            -3333.333333332644,
            -3333.3333333326427
          ],
          "q_to": [
            -666.6666666666252,
            -666.6666666666251,
            -666.6666666666262
          ]
        }
      ]
    },
    {
      "node": [
        {
          "id": 1,
          "u_pu": [
            1.0,
            0.9999999999999999,
            0.9999999999999999
          ],
          "u": [
            6062.177826491071,
            6062.17782649107,
            6062.17782649107
          ],
          "u_angle": [
            2.825171706399752e-32,
            -2.0943951023931953,
            2.0943951023931953
          ]
        },
        {
          "id": 2,
          "u_pu": [
            1.0301220123521493,
            1.0301220123521493,
            1.0301220123521493
          ],
          "u": [
            237.89648845186898,
            237.89648845186898,
            237.89648845186898
          ],
          "u_angle": [
            0.5226804626508423,
            -1.5717146397423531,
            2.617075565044037
          ]
        }
      ],
      "sym_load": [
        {
          "id": 6,
          "p": [
            3333.3333333333335,
            3333.3333333333335,
            3333.3333333333335
          ],
          "q": [
            666.6666666666666,
            666.6666666666666,
            666.6666666666666
          ]
        }
      ],
      "transformer": [
        {
          "id": 3,
          "p_from": [
            3687.753627732159,
            3687.7536277321597,
            3687.753627732159
          ],
          "q_from": [
            4193.10407048945,
            4193.1040704894485,
            4193.10407048945
          ],
          "p_to": [
            -3333.333333333905,
            -3333.3333333339065,
            -3333.3333333339065
          ],
          "q_to": [
            -666.6666666655277,
            -666.6666666655273,
            -666.6666666655287
          ]
        }
      ]
    },
    {
      "node": [
        {
          "id": 1,
          "u_pu": [
            1.0,
            0.9999999999999999,
            0.9999999999999999
          ],
          "u": [
            6062.177826491071,
            6062.17782649107,
            6062.17782649107
          ],
          "u_angle": [
            3.148254708590708e-32,
            -2.0943951023931953,
            2.0943951023931953
          ]
        },
        {
          "id": 2,
          "u_pu": [
            1.0196045909082676,
            1.0196045909082674,
            1.0196045909082676
          ],
          "u": [
            235.46759401114664,
            235.46759401114656,
            235.46759401114664
          ],
          "u_angle": [
            0.5226614252678251,
            -1.57173367712537,
            2.6170565276610205
          ]
        }
      ],
      "sym_load": [
        {
          "id": 6,
          "p": [
            3333.3333333333335,
            3333.3333333333335,
            3333.3333333333335
          ],
          "q": [
            666.6666666666666,
            666.6666666666666,
            666.6666666666666
          ]
        }
      ],
      "transformer": [
        {
          "id": 3,
          "p_from": [
            3680.570868150379,
            3680.570868150379,
            3680.570868150379
          ],
          "q_from": [
            4121.636515015847,
            4121.636515015844,
            4121.636515015847
          ],
          "p_to": [
            -3333.3333333336755,
            -3333.3333333336764,
            -3333.3333333336764
          ],
          "q_to": [
            -666.6666666672755,
            -666.6666666672745,
            -666.6666666672762
          ]
        }
      ]
    },
    {
      "node": [
        {
          "id": 1,
          "u_pu": [
            1.0,
            0.9999999999999999,
            0.9999999999999999
          ],
          "u": [
            6062.177826491071,
            6062.17782649107,
            6062.17782649107
          ],
          "u_angle": [
            3.09818337158885e-32,
            -2.0943951023931953,
            2.0943951023931953
          ]
        },
        {
          "id": 2,
          "u_pu": [
            1.0092995815468384,
            1.0092995815468384,
            1.0092995815468382
          ],
          "u": [
            233.08775403961755,
            233.08775403961755,
            233.08775403961747
          ],
          "u_angle": [
            0.5226421924023662,
            -1.5717529099908292,
            2.617037294795561
          ]
        }
      ],
      "sym_load": [
        {
          "id": 6,
          "p": [
            3333.3333333333335,
            3333.3333333333335,
            3333.3333333333335
          ],
          "q": [
            666.6666666666666,
            666.6666666666666,
            666.6666666666666
          ]
        }
      ],
      "transformer": [
        {
          "id": 3,
          "p_from": [
            3673.6049406049233,
            3673.6049406049237,
            3673.6049406049237
          ],
          "q_from": [
            4052.3264110596806,
            4052.3264110596797,
            4052.326411059681
          ],
          "p_to": [
            -3333.333333333392,
            -3333.333333333393,
            -3333.3333333333935
          ],
          "q_to": [
            -666.6666666663765,
            -666.6666666663754,
            -666.6666666663766
          ]
        }
      ]
    },
    {
      "node": [
        {
          "id": 1,
          "u_pu": [
            1.0,
            0.9999999999999999,
            0.9999999999999999
          ],
          "u": [
            6062.177826491071,
            6062.17782649107,
            6062.17782649107
          ],
          "u_angle": [
            2.5045517972075887e-32,
            -2.0943951023931953,
            2.0943951023931953
          ]
        },
        {
          "id": 2,
          "u_pu": [
            0.9992006120767254,
            0.9992006120767253,
            0.9992006120767253
          ],
          "u": [
            230.75549694277453,
            230.7554969427745,
            230.7554969427745
          ],
          "u_angle": [
            0.5226227640478392,
            -1.5717723383453563,
            2.617017866441035
          ]
        }
      ],
      "sym_load": [
        {
          "id": 6,
          "p": [
            3333.3333333333335,
            3333.3333333333335,
            3333.3333333333335
          ],
          "q": [
            666.6666666666666,
            666.6666666666666,
            666.6666666666666
          ]
        }
      ],
      "transformer": [
        {
          "id": 3,
          "p_from": [
            3666.8471559166956,
            3666.847155916696,
            3666.847155916697
          ],
          "q_from": [
            3985.087308588041,
            3985.08730858804,
            3985.087308588041
          ],
          "p_to": [
            -3333.333271183242,
            -3333.3332711832427,
            -3333.3332711832427
          ],
          "q_to": [
            -666.6660544824888,
            -666.6660544824881,
            -666.6660544824895
          ]
        }
      ]
    },
    {
      "node": [
        {
          "id": 1,
          "u_pu": [
            1.0,
            0.9999999999999999,
            0.9999999999999999
          ],
          "u": [
            6062.177826491071,
            6062.17782649107,
            6062.17782649107
          ],
          "u_angle": [
            1.9945487957362675e-32,
            -2.0943951023931953,
            2.0943951023931953
          ]
        },
        {
          "id": 2,
          "u_pu": [
            0.9893015619841256,
            0.9893015619841256,
            0.9893015619841256
          ],
          "u": [
            228.46940924850088,
            228.46940924850088,
            228.46940924850088
          ],
          "u_angle": [
            0.5226031401961694,
            -1.5717919621970255,
            2.6169982425893648
          ]
        }
      ],
      "sym_load": [
        {
          "id": 6,
          "p": [
            3333.3333333333335,
            3333.3333333333335,
            3333.3333333333335
          ],
          "q": [
            666.6666666666666,
            666.6666666666666,
            666.6666666666666
          ]
        }
      ],
      "transformer": [
        {
          "id": 3,
          "p_from": [
            3660.289483556288,
            3660.2894835562893,
            3660.2894835562893
          ],
          "q_from": [
            3919.839287739535,
            3919.839287739533,
            3919.839287739534
          ],
          "p_to": [
            -3333.3333182878982,
            -3333.333318287899,
            -3333.333318287899
          ],
          "q_to": [
            -666.6665184776482,
            -666.6665184776475,
            -666.666518477649
          ]
        }
      ]
    },
    {
      "node": [
        {
          "id": 1,
          "u_pu": [
            1.0,
            0.9999999999999999,
            0.9999999999999999
          ],
          "u": [
            6062.177826491071,
            6062.17782649107,
            6062.17782649107
          ],
          "u_angle": [
            2.971358297856286e-32,
            -2.0943951023931953,
            2.0943951023931953
          ]
        },
        {
          "id": 2,
          "u_pu": [
            0.9795965516831876,
            0.9795965516831875,
            0.9795965516831875
          ],
          "u": [
            226.228133124607,
            226.228133124607,
            226.228133124607
          ],
          "u_angle": [
            0.5225833208410432,
            -1.5718117815521522,
            2.6169784232342383
          ]
        }
      ],
      "sym_load": [
        {
          "id": 6,
          "p": [
            3333.3333333333335,
            3333.3333333333335,
            3333.3333333333335
          ],
          "q": [
            666.6666666666666,
            666.6666666666666,
            666.6666666666666
          ]
        }
      ],
      "transformer": [
        {
          "id": 3,
          "p_from": [
            3653.9239801506296,
            3653.92398015063,
            3653.92398015063
          ],
          "q_from": [
            3856.5033270425706,
            3856.5033270425697,
            3856.5033270425706
          ],
          "p_to": [
            -3333.3333333168357,
            -3333.3333333168375,
            -3333.3333333168366
          ],
          "q_to": [
            -666.6666665104518,
            -666.6666665104514,
            -666.6666665104528
          ]
        }
      ]
    },
    {
      "node": [
        {
          "id": 1,
          "u_pu": [
            1.0,
            0.9999999999999999,
            0.9999999999999999
          ],
          "u": [
            6062.177826491071,
            6062.17782649107,
            6062.17782649107
          ],
          "u_angle": [
            2.2201700152945154e-32,
            -2.0943951023931953,
            2.0943951023931953
          ]
        },
        {
          "id": 2,
          "u_pu": [
            0.9700799295216866,
            0.9700799295216866,
            0.9700799295216866
          ],
          "u": [
            224.0303633779196,
            224.0303633779196,
            224.0303633779196
          ],
          "u_angle": [
            0.5225633059752667,
            -1.5718317964179285,
            2.616958408368462
          ]
        }
      ],
      "sym_load": [
        {
          "id": 6,
          "p": [
            3333.3333333333335,
            3333.3333333333335,
            3333.3333333333335
          ],
          "q": [
            666.6666666666666,
            666.6666666666666,
            666.6666666666666
          ]
        }
      ],
      "transformer": [
        {
          "id": 3,
          "p_from": [
            3647.743220626386,
            3647.743220626386,
            3647.743220626386
          ],
          "q_from": [
            3795.005547968078,
            3795.005547968077,
            3795.0055479680773
          ],
          "p_to": [
            -3333.3333162657405,
            -3333.3333162657414,
            -3333.333316265741
          ],
          "q_to": [
            -666.6664985639959,
            -666.6664985639952,
            -666.6664985639962
          ]
        }
      ]
    },
    {
      "node": [
        {
          "id": 1,
          "u_pu": [
            1.0,
            0.9999999999999999,
            0.9999999999999999
          ],
          "u": [
            6062.177826491071,
            6062.17782649107,
            6062.17782649107
          ],
          "u_angle": [
            2.1464143895652595e-32,
            -2.0943951023931953,
            2.0943951023931953
          ]
        },
        {
          "id": 2,
          "u_pu": [
            0.9607462612186142,
            0.9607462612186141,
            0.9607462612186141
          ],
          "u": [
            221.87484501499736,
            221.87484501499733,
            221.87484501499733
          ],
          "u_angle": [
            0.5225430955915745,
            -1.5718520068016206,
            2.61693819798477
          ]
        }
      ],
      "sym_load": [
        {
          "id": 6,
          "p": [
            3333.3333333333335,
            3333.3333333333335,
            3333.3333333333335
          ],
          "q": [
            666.6666666666666,
            666.6666666666666,
            666.6666666666666
          ]
        }
      ],
      "transformer": [
        {
          "id": 3,
          "p_from": [
            3641.740135156945,
            3641.7401351569456,
            3641.7401351569456
          ],
          "q_from": [
            3735.2756066888487,
            3735.275606688847,
            3735.275606688848
          ],
          "p_to": [
            -3333.333267128489,
            -3333.3332671284893,
            -3333.3332671284893
          ],
          "q_to": [
            -666.6660146310223,
            -666.666014631022,
            -666.6660146310232
          ]
        }
      ]
    },
    {
      "node": [
        {
          "id": 1,
          "u_pu": [
            1.0,
            0.9999999999999999,
            0.9999999999999999
          ],
          "u": [
            6062.177826491071,
            6062.17782649107,
            6062.17782649107
          ],
          "u_angle": [
            3.2840483335009117e-32,
            -2.0943951023931953,
            2.0943951023931953
          ]
        },
        {
          "id": 2,
          "u_pu": [
            0.9515903190530287,
            0.9515903190530287,
            0.9515903190530287
          ],
          "u": [
            219.76037074540324,
            219.76037074540324,
            219.76037074540324
          ],
          "u_angle": [
            0.522522689681613,
            -1.5718724127115824,
            2.616917792074809
          ]
        }
      ],
      "sym_load": [
        {
          "id": 6,
          "p": [
            3333.3333333333335,
            3333.3333333333335,
            3333.3333333333335
          ],
          "q": [
            666.6666666666666,
            666.6666666666666,
            666.6666666666666
          ]
        }
      ],
      "transformer": [
        {
          "id": 3,
          "p_from": [
            3635.908136495612,
            3635.9081364956132,
            3635.9081364956132
          ],
          "q_from": [
            3677.2479459838964,
            3677.247945983895,
            3677.2479459838974
          ],
          "p_to": [
            -3333.333333333175,
            -3333.3333333331757,
            -3333.3333333331757
          ],
          "q_to": [
            -666.6666666663897,
            -666.6666666663889,
            -666.6666666663906
          ]
        }
      ]
    }
  ]
}
